<?xml version="1.0" encoding="UTF-8"?>

<!-- generated on Thu Nov  9 11:42:27 2017 by SUMO gui Version v0_31_0-823-g7cd1a25b99
<?xml version="1.0" encoding="UTF-8"?>

<configuration xmlns:xsi="http://www.w3.org/2001/XMLSchema-instance" xsi:noNamespaceSchemaLocation="http://sumo.dlr.de/xsd/sumoConfiguration.xsd">

    <input>
        <net-file value="../data/cross.net.xml"/>
        <route-files value="../data/cross.rou.xml"/>
        <additional-files value="../data/cross.det.xml"/>
    </input>

    <time>
        <begin value="0"/>
    </time>

    <report>
        <verbose value="true"/>
        <no-step-log value="true"/>
    </report>

    <traci_server>
        <remote-port value="50693"/>
    </traci_server>

    <gui_only>
        <gui-settings-file value="../data/cross.settings.xml"/>
    </gui_only>

</configuration>
